7
0 1
B       -1.517822   -0.429168   -0.051910 
H       -1.193131   -1.472542   -0.528051 
H       -2.630321   -0.173122    0.292545 
C        0.731413    0.422135   -0.089569 
O       -0.599977    0.570171    0.083563 
O        1.329412   -0.585515    0.095034 
H        1.188606    1.381453   -0.396304 
