7
0 1
H       -1.420693    0.001707   -1.421946 
Ga      -0.781659    0.000044    0.000014 
H       -1.419234   -0.000239    1.422668 
C        1.571898   -0.000289   -0.000031 
O        0.934835   -1.082367   -0.000237 
O        0.935815    1.082341    0.000083 
H        2.674761   -0.000900    0.000274 
