10
0 1
H        0.487105   -1.995345   -0.023946 
Ga       0.449875   -0.433338   -0.004869 
C        1.852889    0.926073    0.011501 
H        1.415966    1.933402    0.073091 
H        2.523988    0.779594    0.872017 
H        2.459809    0.861807   -0.905173 
C       -1.756565    0.413009    0.004335 
O       -1.162721    0.202351   -1.081243 
O       -1.165126    0.174493    1.085222 
H       -2.788154    0.804763    0.008113 
