17
0 1
Al      -1.328044    0.861081   -0.000736 
H       -1.771067    2.369915   -0.002043 
C        0.518563    0.290852   -0.000302 
C        0.905622   -1.065916   -0.000161 
C        1.550247    1.252942   -0.000107 
C        2.249611   -1.445481    0.000191 
H        0.144634   -1.851589   -0.000344 
C        2.899175    0.883959    0.000230 
H        1.299611    2.317950   -0.000230 
C        3.249547   -0.467928    0.000385 
H        2.520101   -2.503057    0.000303 
H        3.676431    1.650409    0.000361 
H        4.300868   -0.761263    0.000655 
C       -2.958557   -0.670696    0.000645 
O       -2.476484   -0.228151    1.075628 
O       -2.475865   -0.230566   -1.075083 
H       -3.772462   -1.413073    0.001221 
