27
0 1
B       -0.442082    0.380987   -0.397813 
C       -0.149734    0.129177    1.113188 
C        1.151366    0.872152    1.551846 
C        0.019242   -1.426799    1.165356 
H       -0.980808    0.385754    1.783278 
C        1.798012    1.678393    0.409927 
H        1.886831    0.153272    1.949722 
H        0.916549    1.558716    2.379905 
C        1.107714   -1.940086    0.206333 
H        0.258866   -1.726625    2.199533 
H       -0.946729   -1.895819    0.912624 
C        2.050315    0.836979   -0.854734 
H        2.739800    2.134384    0.756241 
H        1.124942    2.514816    0.144760 
C        0.905060   -1.455586   -1.240201 
H        2.098432   -1.620469    0.566599 
H        1.117643   -3.041921    0.223125 
C        0.765838    0.100437   -1.342165 
H        2.858166    0.113141   -0.656267 
H        2.420395    1.497922   -1.653612 
H       -0.004410   -1.927255   -1.653046 
H        1.747496   -1.786650   -1.871091 
H        0.557495    0.349819   -2.392801 
C       -2.873796    0.575335   -0.370425 
O       -1.675733    0.695138   -0.945410 
O       -3.153282   -0.209914    0.480976 
H       -3.596230    1.284177   -0.819179 
