31
0 1
Al      -0.000053   -0.802165   -0.000183 
C       -1.501816    0.098497   -0.853967 
H       -1.187314    0.459896   -1.851007 
H       -2.314674   -0.628232   -1.045353 
C        1.501994    0.097951    0.853722 
H        1.187725    0.458816    1.851029 
H        2.314739   -0.629057    1.044531 
C       -2.073769    1.282821   -0.039925 
H       -1.264281    2.018328    0.120134 
C       -2.562868    0.818911    1.340553 
H       -1.748204    0.382554    1.943686 
H       -2.987733    1.655121    1.917982 
H       -3.345614    0.049175    1.230981 
C       -3.208134    1.994297   -0.792834 
H       -3.591148    2.858808   -0.226019 
H       -2.866288    2.353012   -1.776340 
H       -4.047411    1.297825   -0.960500 
C        2.074016    1.282576    0.040193 
H        1.264635    2.018302   -0.119396 
C        2.562783    0.819198   -1.340590 
H        2.987823    1.655543   -1.917700 
H        3.345297    0.049160   -1.231517 
H        1.747873    0.383425   -1.943820 
C        3.208636    1.993498    0.793228 
H        3.591632    2.858262    0.226789 
H        2.867052    2.351724    1.777004 
H        4.047867    1.296835    0.960336 
C       -0.000311   -3.047519   -0.000020 
O       -0.508257   -2.396955    0.949053 
O        0.507754   -2.397172   -0.949138 
H       -0.000444   -4.149718    0.000068 
