9
0 1
Al       1.628721    0.154877    0.060814 
H        1.877509    0.485701    1.581914 
H        2.703632    0.274845   -1.075659 
C       -1.114873   -0.505619    0.247536 
H       -1.627628   -1.422661   -0.099112 
O        0.105567   -0.424460   -0.395897 
O       -1.898652    0.618806    0.008615 
H       -2.097033    0.678640   -0.929832 
H       -0.995941   -0.550987    1.345142 
