12
0 1
Al       1.024156    0.483516   -0.195758 
H        0.916664    1.857641   -0.969800 
C        2.644545   -0.546679    0.026907 
H        2.505253   -1.388697    0.722490 
H        2.979984   -0.957991   -0.941414 
H        3.468938    0.082712    0.403257 
C       -1.725192    0.280886    0.406270 
H       -2.215572    0.143610    1.388861 
O       -0.402195   -0.093298    0.525581 
O       -2.383135   -0.454219   -0.577562 
H       -2.375308   -1.384918   -0.338378 
H       -1.827469    1.336828    0.096624 
