12
0 1
H       -1.756313   -1.567867    0.627586 
Ga      -0.882548   -0.380114    0.102430 
C       -1.340793    1.497949   -0.206656 
H       -0.735366    1.927368   -1.018864 
H       -2.407479    1.620516   -0.445083 
H       -1.123954    2.073571    0.708371 
C        1.813516   -0.013053   -0.545143 
H        2.682071   -0.579411   -0.931498 
O        0.799969   -0.908307   -0.285022 
O        2.174181    0.723637    0.590205 
H        2.547159    0.129558    1.247147 
H        1.523339    0.747790   -1.293665 
