19
0 1
Al       1.399240   -0.746736   -0.000359 
H        1.858940   -2.259950   -0.001181 
C       -0.473889   -0.247013   -0.000188 
C       -1.472565   -1.243868    0.000152 
C       -0.908925    1.095618   -0.000348 
C       -2.833392   -0.921805    0.000351 
H       -1.184367   -2.299419    0.000262 
C       -2.265290    1.428961   -0.000166 
H       -0.175349    1.906823   -0.000645 
C       -3.230674    0.417340    0.000190 
H       -3.583828   -1.714604    0.000616 
H       -2.572276    2.476560   -0.000303 
H       -4.291641    0.673648    0.000336 
C        4.086594    0.326791    0.000247 
H        4.330967   -0.746990   -0.000299 
H        4.561716    0.772342   -0.891940 
N        2.643721    0.501341    0.000376 
H        2.386746    1.482176    0.000913 
H        4.561760    0.771443    0.892855 
