29
0 1
B       -0.785555    0.027717    0.312308 
C        0.405748    0.026179    1.348774 
C        1.368739    1.219933    1.051246 
C        1.118089   -1.345426    1.173582 
H        0.060760    0.090685    2.394209 
C        0.937543    2.034855   -0.183347 
H        2.398362    0.852613    0.901463 
H        1.408662    1.893649    1.921606 
C        1.590093   -1.584059   -0.271148 
H        1.980631   -1.413991    1.859935 
H        0.419080   -2.151939    1.459110 
C        0.710099    1.164343   -1.434182 
H        1.683496    2.817556   -0.399583 
H       -0.005923    2.558316    0.054820 
C        0.464341   -1.403554   -1.304089 
H        2.415557   -0.892233   -0.504116 
H        2.009710   -2.599657   -0.358952 
C       -0.262975   -0.032516   -1.175468 
H        1.682684    0.791957   -1.798730 
H        0.307093    1.802155   -2.236525 
H       -0.273957   -2.214874   -1.172167 
H        0.877943   -1.512958   -2.322196 
H       -1.057197   -0.013338   -1.936436 
C       -3.320649   -0.062113   -0.082617 
H       -3.978874    0.800151    0.116151 
H       -3.056442   -0.049452   -1.147334 
N       -2.116543   -0.004100    0.719831 
H       -2.298945    0.008294    1.716633 
H       -3.895247   -0.982661    0.115244 
