8
0 1
B        1.291909    0.205039    0.000045 
H        1.287520    1.408459   -0.000407 
H        2.305551   -0.431354    0.000613 
C       -1.127504    0.140836    0.000068 
H       -1.680868   -0.186052   -0.893078 
H       -1.043432    1.239927   -0.001114 
O        0.139546   -0.464642   -0.000172 
H       -1.679655   -0.184058    0.894727 
