8
0 1
Al       1.197847    0.079878   -0.000009 
H        1.509193    1.628510    0.000086 
H        2.295074   -1.042759   -0.000195 
C       -1.672846    0.143064   -0.000041 
H       -2.236080   -0.182826    0.891471 
H       -2.235705   -0.182384   -0.891949 
O       -0.403514   -0.420780    0.000088 
H       -1.639307    1.248903    0.000245 
