8
0 1
H        1.870315    1.061007    0.000293 
Ga       0.774374   -0.049039    0.000034 
H        0.925628   -1.612630   -0.000651 
C       -2.064563   -0.202449    0.000107 
H       -1.861502   -1.291361   -0.000628 
H       -2.672715    0.028402    0.892901 
O       -0.900773    0.565003   -0.000240 
H       -2.673749    0.029458   -0.891685 
