11
0 1
Al       0.537353    0.502910   -0.063063 
H        0.388139    2.075161   -0.160369 
C        2.228013   -0.431662   -0.035744 
H        2.093986   -1.522052    0.037489 
H        2.812161   -0.217718   -0.947638 
H        2.847019   -0.103398    0.817255 
C       -2.249160   -0.138239    0.030340 
H       -2.740112   -0.639924   -0.821955 
H       -2.706609   -0.526293    0.957313 
O       -0.884524   -0.394118    0.020977 
H       -2.473323    0.943604   -0.034530 
