28
0 1
B       -0.770087    0.125326   -0.369535 
C       -0.337134    0.111884    1.143086 
C        0.778754    1.174267    1.398181 
C        0.186023   -1.344576    1.355435 
H       -1.161949    0.271822    1.853478 
C        1.166696    1.949856    0.124873 
H        1.677392    0.691499    1.817963 
H        0.435678    1.893517    2.158275 
C        1.322336   -1.718478    0.386920 
H        0.530028   -1.465182    2.397411 
H       -0.650077   -2.053579    1.214617 
C        1.542643    1.031189   -1.052787 
H        1.994359    2.644162    0.344768 
H        0.307183    2.574843   -0.179889 
C        0.952606   -1.483607   -1.088068 
H        2.222245   -1.134581    0.637766 
H        1.594007   -2.776405    0.535002 
C        0.443099   -0.034027   -1.353486 
H        2.506322    0.539752   -0.835977 
H        1.710840    1.653206   -1.945645 
H        0.164074   -2.200098   -1.379456 
H        1.826620   -1.695866   -1.728181 
H        0.135070    0.027903   -2.407663 
C       -3.170964    0.150724   -0.008619 
H       -3.181914    1.060856    0.612743 
H       -3.213089   -0.730574    0.652220 
O       -2.036223    0.112177   -0.834899 
H       -4.060919    0.151288   -0.653778 
