9
0 1
B        0.088339    0.528302   -0.000055 
H        0.184164    1.724834   -0.000004 
C       -1.318144   -0.165756    0.000036 
H       -1.904117    0.155622    0.879201 
H       -1.904151    0.155466   -0.879202 
H       -1.279066   -1.267244   -0.000062 
N        1.270224   -0.203541    0.000011 
H        1.292926   -1.215338    0.000015 
H        2.185845    0.224475    0.000034 
