9
0 1
Al      -0.068468    0.500458   -0.000022 
H       -0.245331    2.073383    0.000102 
C        1.666525   -0.375817    0.000027 
H        1.588342   -1.474958    0.000710 
H        2.257024   -0.080511   -0.884783 
H        2.257652   -0.079295    0.883991 
N       -1.553464   -0.452556    0.000005 
H       -1.605827   -1.464400    0.000057 
H       -2.486682   -0.057370    0.000006 
