16
0 1
B        1.994002    0.636085   -0.000221 
H        2.318706    1.788942   -0.000650 
C        0.479806    0.266875    0.000041 
C       -0.481635    1.296308    0.000002 
C        0.001501   -1.059085   -0.000054 
C       -1.852106    1.022559    0.000136 
H       -0.141787    2.334782   -0.000098 
C       -1.363176   -1.346216   -0.000082 
H        0.706705   -1.894361   -0.000423 
C       -2.294830   -0.301827    0.000075 
H       -2.574571    1.840677    0.000043 
H       -1.705732   -2.382555   -0.000228 
H       -3.363701   -0.522885    0.000014 
N        3.004009   -0.318494    0.000100 
H        3.983368   -0.070507    0.000396 
H        2.841584   -1.316757    0.000645 
