16
0 1
H        2.248704    1.804821    0.000242 
Ga       1.567627    0.390132    0.000027 
C       -0.366454    0.110542   -0.000073 
C       -0.934995   -1.178434   -0.000030 
C       -1.245970    1.210668   -0.000037 
C       -2.319645   -1.363576    0.000070 
H       -0.288616   -2.059909    0.000003 
C       -2.632985    1.034866   -0.000061 
H       -0.843710    2.227437   -0.000090 
C       -3.170882   -0.254473    0.000029 
H       -2.736845   -2.372271    0.000117 
H       -3.294432    1.903186   -0.000046 
H       -4.253105   -0.395947    0.000088 
N        2.655748   -1.072770   -0.000006 
H        3.666010   -1.015400   -0.000100 
H        2.340905   -2.034182   -0.000398 
