30
0 1
Al       0.000056    1.231488   -0.000253 
C        1.474616    0.270826   -0.856784 
H        1.126957   -0.156530   -1.816244 
H        2.288102    0.973089   -1.120692 
C       -1.474826    0.271452    0.856522 
H       -1.127609   -0.155050    1.816520 
H       -2.288257    0.974152    1.119427 
C        2.057763   -0.863489    0.018871 
H        1.243053   -1.569290    0.264056 
C        2.608653   -0.308795    1.341297 
H        1.824987    0.188637    1.939606 
H        3.039552   -1.107090    1.966067 
H        3.401114    0.433442    1.144490 
C        3.150390   -1.650846   -0.720517 
H        3.542504   -2.476995   -0.104715 
H        2.763519   -2.076758   -1.659494 
H        3.992838   -0.984840   -0.973922 
C       -2.057786   -0.863537   -0.018368 
H       -1.243092   -1.569707   -0.262537 
C       -2.607949   -0.309887   -1.341530 
H       -3.038868   -1.108576   -1.965789 
H       -3.400240    0.432791   -1.145713 
H       -1.823847    0.186710   -1.939968 
C       -3.150892   -1.650058    0.721204 
H       -3.542826   -2.476715    0.105967 
H       -2.764533   -2.075158    1.660758 
H       -3.993370   -0.983706    0.973598 
N       -0.000058    3.000525   -0.000267 
H       -0.726740    3.582250    0.399436 
H        0.726615    3.582341   -0.399864 
