8
0 1
Al       0.112456    0.474374   -0.000113 
H        0.363744    2.037434    0.000534 
C       -1.642880   -0.337241    0.000028 
H       -2.223559   -0.021919    0.884275 
H       -2.223261   -0.023449   -0.884961 
H       -1.586610   -1.436997    0.000977 
O        1.460352   -0.549579    0.000080 
H        2.382214   -0.301852   -0.000166 
