8
0 1
H        0.427190   -1.864368   -0.005248 
Ga       0.062623   -0.332187    0.000609 
C       -1.692138    0.527612    0.001016 
H       -1.583253    1.611404    0.149758 
H       -2.201375    0.352306   -0.960359 
H       -2.333957    0.114988    0.794801 
O        1.446785    0.810189    0.000206 
H        2.328639    0.436269   -0.005576 
