25
0 1
B       -0.021048   -1.172795   -0.161072 
C        0.007625   -0.145807   -1.344936 
C        1.228430    0.815564   -1.189222 
C       -1.349066    0.613835   -1.228540 
H        0.037957   -0.637228   -2.328498 
C        2.056248    0.523527    0.077563 
H        0.890203    1.865381   -1.168390 
H        1.885876    0.723063   -2.067474 
C       -1.547448    1.271300    0.148862 
H       -1.414218    1.381796   -2.018739 
H       -2.174656   -0.097507   -1.408881 
C        1.207658    0.486384    1.363679 
H        2.864769    1.265644    0.181411 
H        2.548464   -0.458815   -0.045292 
C       -1.370115    0.282856    1.314873 
H       -0.837153    2.105407    0.264524 
H       -2.553241    1.719121    0.200402 
C       -0.012243   -0.483441    1.252054 
H        0.861913    1.506440    1.601535 
H        1.850631    0.177705    2.202572 
H       -2.198604   -0.447883    1.292985 
H       -1.448042    0.821642    2.275125 
H        0.007075   -1.198004    2.091914 
O       -0.165532   -2.501591   -0.381120 
H       -0.218009   -3.035366    0.415130 
