7
0 1
B       -0.162141    0.492912    0.000011 
H       -0.346135    1.677960    0.000001 
C        1.250283   -0.153579   -0.000000 
H        1.237382   -1.253058   -0.000015 
H        1.820058    0.200394   -0.877899 
H        1.820122    0.200343    0.877875 
F       -1.246936   -0.263191   -0.000002 
