14
0 1
H       -2.517854    1.622965    0.000378 
Ga      -1.586271    0.372338   -0.000017 
C        0.334396    0.142298   -0.000204 
C        1.215948    1.240519   -0.000079 
C        0.881187   -1.156250   -0.000161 
C        2.600012    1.050206    0.000089 
H        0.822887    2.260584   -0.000103 
C        2.264405   -1.349329   -0.000005 
H        0.214382   -2.021665   -0.000258 
C        3.123051   -0.245963    0.000129 
H        3.270858    1.910982    0.000199 
H        2.674612   -2.360651    0.000023 
H        4.204039   -0.396738    0.000266 
F       -2.445393   -1.182985    0.000159 
