24
0 1
B       -0.196900    1.157400    0.000033 
C       -0.023494    0.331815    1.312541 
C        1.315785   -0.468618    1.287193 
C       -1.270949   -0.612789    1.282653 
H       -0.086764    0.944862    2.223449 
C        2.127266   -0.224979    0.000140 
H        1.119162   -1.548360    1.395876 
H        1.931820   -0.180514    2.152832 
C       -1.345773   -1.459836   -0.000103 
H       -1.249858   -1.272618    2.166704 
H       -2.187435   -0.001889    1.365017 
C        1.316013   -0.468435   -1.287060 
H        3.033042   -0.852958    0.000174 
H        2.475479    0.824721    0.000271 
C       -1.270687   -0.612823   -1.282890 
H       -0.532151   -2.202004   -0.000012 
H       -2.284124   -2.037753   -0.000130 
C       -0.023311    0.331897   -1.312518 
H        1.119505   -1.548173   -1.395918 
H        1.932164   -0.180186   -2.152571 
H       -2.187186   -0.001990   -1.365528 
H       -1.249338   -1.272703   -2.166898 
H       -0.086451    0.944982   -2.223410 
F       -0.634719    2.411133    0.000027 
