14
0 1
Al      -1.487964    0.898248   -0.000190 
H       -1.908262    2.412147   -0.000517 
C        0.340126    0.304931    0.000039 
C        1.381660    1.257644    0.000152 
C        0.700940   -1.059407   -0.000077 
C        2.723839    0.868869    0.000099 
H        1.144140    2.325690    0.000227 
C        2.040180   -1.454554   -0.000079 
H       -0.078758   -1.825676   -0.000176 
C        3.052110   -0.489296    0.000000 
H        3.513169    1.622640    0.000197 
H        2.297656   -2.515195   -0.000229 
H        4.099281   -0.797279   -0.000042 
Cl      -3.009225   -0.556980    0.000129 
