7
0 1
B        2.448387    0.299171    0.000090 
H        2.704415   -0.226881   -1.040284 
H        2.710903   -0.247812    1.027947 
H        2.039911    1.422370    0.012699 
C       -0.896170   -0.108135   -0.000021 
O        0.172671   -0.549233   -0.000104 
O       -1.962689    0.324893    0.000018 
