7
0 1
Al       1.910043    0.052953    0.000012 
H        2.144350   -0.706098   -1.369954 
H        2.145305   -0.714887    1.364897 
H        1.863011    1.638001    0.005093 
C       -1.412824   -0.037565   -0.000004 
O       -0.263277   -0.184278   -0.000040 
O       -2.550008    0.099276    0.000018 
