7
0 1
H       -1.487627    0.030632   -1.574368 
H       -1.495844   -1.378354    0.759531 
Ga      -1.421504    0.000105   -0.000222 
H       -1.495888    1.348097    0.812363 
C        2.209457   -0.000955    0.000395 
O        1.052745   -0.000576    0.001584 
O        3.358411    0.000838   -0.000710 
