17
0 1
B        0.713776   -2.345508   -0.001489 
H        1.107717   -2.803028    1.030303 
H        1.108145   -2.801208   -1.033918 
C       -0.303574   -1.197527   -0.000753 
C       -0.787351   -0.645797   -1.209508 
C       -0.788159   -0.647933    1.208646 
C       -1.706813    0.402510   -1.213527 
H       -0.429250   -1.056777   -2.156533 
C       -1.707738    0.400281    1.213897 
H       -0.430625   -1.060517    2.155188 
C       -2.165464    0.924645    0.000492 
H       -2.067627    0.816456   -2.156438 
H       -2.069221    0.812519    2.157302 
H       -2.883620    1.746736    0.000972 
C        2.124631    0.936501    0.000679 
O        2.787871   -0.009537    0.001201 
O        1.474930    1.889197    0.000175 
