27
0 1
B        0.218076   -0.584304   -0.052584 
H        1.076585   -1.421364   -0.106207 
C       -0.540963   -0.100460   -1.320617 
C       -1.053383    1.366149   -1.230451 
C       -1.722617   -1.139651   -1.300478 
H        0.000610   -0.258470   -2.263962 
C       -0.617386    2.064053    0.069934 
H       -2.153361    1.399681   -1.312196 
H       -0.666821    1.939805   -2.087150 
C       -2.538235   -1.085927    0.003147 
H       -2.375937   -0.947133   -2.168282 
H       -1.316952   -2.158706   -1.428664 
C       -0.993011    1.267053    1.331445 
H       -1.052524    3.075626    0.119295 
H        0.479235    2.188016    0.049107 
C       -1.652578   -1.240018    1.251528 
H       -3.089042   -0.133924    0.057162 
H       -3.299597   -1.882575   -0.007704 
C       -0.473009   -0.199009    1.286478 
H       -2.088423    1.286813    1.462918 
H       -0.571269    1.776517    2.211795 
H       -1.240129   -2.264075    1.276622 
H       -2.257131   -1.119163    2.166341 
H        0.118067   -0.422737    2.185828 
C        3.400646   -0.173159   -0.020081 
O        2.790385    0.808414   -0.019403 
O        4.020805   -1.144786   -0.020273 
