9
0 1
B        1.935538    0.061996    0.000010 
H        2.386663   -0.412177   -1.015154 
H        2.386795   -0.412748    1.014850 
H        1.872351    1.277681    0.000343 
C       -0.526781    0.368926    0.000004 
H       -0.381303    1.458514   -0.000017 
O        0.400814   -0.415439   -0.000018 
O       -1.769115   -0.015957    0.000002 
H       -1.835103   -0.983643    0.000029 
