9
0 1
H        0.979877    1.592323    0.000406 
H        1.706250   -0.644761    1.368392 
Ga       1.293954    0.027223   -0.000043 
H        1.705845   -0.644071   -1.368938 
C       -1.671201    0.334518    0.000440 
H       -1.475694    1.419798   -0.000246 
O       -0.796008   -0.499925    0.000174 
O       -2.944842    0.042911   -0.000258 
H       -3.074854   -0.918211   -0.000253 
