19
0 1
B        0.879447   -0.611539    1.239223 
H        1.285920    0.218401    2.030400 
H        1.014330   -1.753539    1.606586 
C       -0.527164   -0.265417    0.587769 
C       -1.325766   -1.256159   -0.016090 
C       -1.033314    1.048618    0.582190 
C       -2.555911   -0.954186   -0.606727 
H       -0.974005   -2.291287   -0.014352 
C       -2.263160    1.366042   -0.002925 
H       -0.453648    1.842520    1.062273 
C       -3.027982    0.361960   -0.602738 
H       -3.152819   -1.745797   -1.064450 
H       -2.630013    2.394431    0.014955 
H       -3.990859    0.602059   -1.057472 
C        2.850236    0.316954    0.007134 
H        3.001945    1.036653    0.824014 
O        1.959929   -0.509780    0.017119 
O        3.700670    0.419683   -0.970217 
H        3.515490   -0.231842   -1.664959 
