19
0 1
Al      -0.903288    1.266907    0.709922 
H       -1.550384    0.824557    2.112424 
H       -1.208949    2.723003    0.147365 
C        0.824978    0.451663    0.276068 
C        1.618488    0.914284   -0.795645 
C        1.339769   -0.629375    1.023082 
C        2.847791    0.328067   -1.113781 
H        1.271343    1.759226   -1.398147 
C        2.568178   -1.224372    0.716671 
H        0.771208   -1.015991    1.874803 
C        3.324646   -0.745412   -0.356200 
H        3.437755    0.711021   -1.949110 
H        2.939199   -2.057589    1.317199 
H        4.285322   -1.203892   -0.598245 
C       -3.051494   -0.512344    0.039971 
H       -3.247786   -0.634928    1.117131 
O       -2.173515    0.204263   -0.395145 
O       -3.845844   -1.204418   -0.721635 
H       -3.634231   -1.069027   -1.659160 
