29
0 1
B        0.309786   -0.701730   -0.000003 
H        0.558945   -1.898644   -0.000002 
C       -0.472901   -0.197417   -1.301130 
C       -0.750172    1.339265   -1.294308 
C       -1.801008   -1.002206   -1.284573 
H        0.050683   -0.460708   -2.236461 
C       -0.310355    2.055181    0.000001 
H       -1.826429    1.525491   -1.455447 
H       -0.236405    1.818811   -2.143875 
C       -2.616925   -0.768606    0.000002 
H       -2.418751   -0.734598   -2.160687 
H       -1.569499   -2.077970   -1.370049 
C       -0.750150    1.339268    1.294319 
H       -0.699119    3.087512    0.000002 
H        0.786974    2.140307   -0.000008 
C       -1.801002   -1.002198    1.284577 
H       -3.006570    0.262917   -0.000001 
H       -3.501570   -1.427001    0.000006 
C       -0.472888   -0.197415    1.301129 
H       -1.826401    1.525503    1.455481 
H       -0.236360    1.818808    2.143874 
H       -1.569499   -2.077962    1.370060 
H       -2.418742   -0.734581    2.160691 
H        0.050697   -0.460713    2.236457 
C        2.806091   -0.753523    0.000007 
H        2.758888   -1.851513    0.000069 
O        1.812094   -0.054827   -0.000021 
O        4.010167   -0.261355    0.000005 
H        3.992004    0.708354   -0.000100 
