9
0 1
Al       1.221723    0.095824    0.000003 
H        1.735735   -0.572843   -1.357639 
H        1.735348   -0.572092    1.358169 
H        0.971223    1.678706   -0.000414 
C       -1.706275    0.291743    0.000002 
H       -1.534329    1.374289   -0.000069 
H       -2.734877   -0.087605    0.000097 
N       -0.700384   -0.477194   -0.000032 
H       -0.915159   -1.476265    0.000022 
