9
0 1
H        0.570501    1.617986   -0.000067 
H        1.286398   -0.637768    1.357030 
Ga       0.820130    0.043405    0.000087 
H        1.286718   -0.637987   -1.356634 
C       -2.200317    0.317226   -0.000263 
H       -1.977950    1.390999   -0.000313 
H       -3.248560   -0.006904   -0.000349 
N       -1.234706   -0.498470   -0.000104 
H       -1.496276   -1.485945   -0.000062 
