12
0 1
H        0.643715   -1.344646   -1.339461 
H        0.026617   -1.218936    1.311894 
Ga       0.497660   -0.464377   -0.018578 
C        1.670867    1.139514    0.164546 
H        1.348172    1.794029    0.990078 
H        2.703452    0.817909    0.380165 
H        1.701374    1.734744   -0.762723 
C       -2.441754    0.254278    0.308470 
H       -2.355610   -0.365762    1.208883 
H       -3.412070    0.706866    0.067612 
N       -1.415274    0.415698   -0.411354 
H       -1.550882    0.998849   -1.239160 
