19
0 1
Al       1.510932   -0.694975    0.835431 
H        2.223228    0.220739    1.943053 
H        1.880144   -2.249211    0.755993 
C       -0.347873   -0.252305    0.360017 
C       -1.207108   -1.204442   -0.229369 
C       -0.887183    1.034497    0.574852 
C       -2.522571   -0.893853   -0.591647 
H       -0.843640   -2.221940   -0.404011 
C       -2.200170    1.358895    0.218670 
H       -0.269089    1.807238    1.043140 
C       -3.021591    0.392048   -0.368431 
H       -3.161208   -1.656198   -1.042967 
H       -2.586379    2.363590    0.403500 
H       -4.048241    0.638714   -0.645584 
C        3.442628    0.879224   -0.727014 
H        3.739469    1.296245    0.242215 
H        3.947160    1.226417   -1.636294 
N        2.522873    0.009772   -0.751817 
H        2.279535   -0.343708   -1.679387 
