29
0 1
B        0.715830   -0.743032   -0.000011 
H        0.844936   -1.957155   -0.000025 
C       -0.096996   -0.209598   -1.300183 
C       -0.346076    1.331592   -1.300912 
C       -1.440182   -0.981528   -1.283823 
H        0.419199   -0.481215   -2.237025 
C        0.057244    2.060531    0.000020 
H       -1.414281    1.533223   -1.491929 
H        0.194295    1.803796   -2.138620 
C       -2.251508   -0.733287   -0.000001 
H       -2.053480   -0.696849   -2.158465 
H       -1.230727   -2.060830   -1.372697 
C       -0.346068    1.331564    1.300939 
H       -0.376830    3.074522    0.000031 
H        1.148720    2.237929    0.000018 
C       -1.440172   -0.981556    1.283809 
H       -2.624071    0.305205    0.000012 
H       -3.148420   -1.374820   -0.000005 
C       -0.096988   -0.209626    1.300177 
H       -1.414270    1.533192    1.491970 
H        0.194311    1.803750    2.138652 
H       -1.230716   -2.060861    1.372658 
H       -2.053464   -0.696897    2.158462 
H        0.419214   -0.481262    2.237009 
C        3.252846   -0.892505   -0.000007 
H        4.234896   -0.411672   -0.000006 
H        3.172437   -1.982569   -0.000003 
N        2.183837   -0.209947   -0.000010 
H        2.299643    0.803786   -0.000013 
