11
0 1
Al      -0.595477    0.700510   -0.004190 
H       -0.605260    1.694162   -1.250025 
H       -0.009590    1.297461    1.370328 
C       -1.924334   -0.733611    0.104195 
H       -1.673953   -1.485626    0.871891 
H       -2.911835   -0.317493    0.372486 
H       -2.046906   -1.258392   -0.858481 
C        2.106187   -0.273992    0.224242 
H        2.153375    0.330992    1.150166 
H        2.992664   -0.849449   -0.099183 
O        1.093949   -0.309083   -0.434166 
