11
0 1
H        0.571351   -1.407880   -1.277375 
H       -0.077250   -1.105863    1.342824 
Ga       0.504969   -0.466364   -0.004706 
C        1.645125    1.150292    0.113811 
H        1.287046    1.850125    0.884865 
H        2.673524    0.855969    0.382957 
H        1.691650    1.679676   -0.850476 
C       -2.406665    0.270970    0.241336 
H       -2.345288   -0.373443    1.141406 
H       -3.376505    0.740002   -0.015081 
O       -1.438666    0.461390   -0.449264 
