18
0 1
H       -1.816687   -2.063714    0.035035 
H       -2.007416    0.103310   -1.652353 
Ga      -1.258274   -0.679367   -0.480317 
C        0.637041   -0.215097   -0.170613 
C        1.252367    0.844096   -0.866550 
C        1.432057   -0.932561    0.744943 
C        2.593995    1.179172   -0.656418 
H        0.674797    1.419838   -1.595680 
C        2.773687   -0.605046    0.964172 
H        0.996946   -1.768132    1.300105 
C        3.356889    0.453803    0.262588 
H        3.046082    2.003496   -1.211740 
H        3.366572   -1.177567    1.680313 
H        4.404671    0.710624    0.428940 
C       -2.944788    1.495698    0.765914 
H       -3.183522    1.732169   -0.290665 
H       -3.394888    2.115766    1.565198 
O       -2.210943    0.583027    1.045809 
