28
0 1
B       -0.665273   -0.757180    0.000806 
H       -0.840443   -1.966907    0.001845 
C        0.095706   -0.203381    1.301573 
C        0.294734    1.344002    1.293399 
C        1.460082   -0.942980    1.284392 
H       -0.417349   -0.493910    2.234495 
C       -0.176885    2.038553   -0.001116 
H        1.360105    1.582510    1.457336 
H       -0.244783    1.796698    2.141533 
C        2.264184   -0.671753   -0.000053 
H        2.062890   -0.642067    2.160099 
H        1.281922   -2.028396    1.373029 
C        0.294010    1.342343   -1.294976 
H        0.169931    3.085625   -0.001890 
H       -1.276288    2.082178   -0.000821 
C        1.459455   -0.944639   -1.283776 
H        2.605473    0.376750   -0.000771 
H        3.178454   -1.288161    0.000143 
C        0.095096   -0.205142   -1.301043 
H        1.359251    1.580711   -1.459879 
H       -0.246040    1.793836   -2.143408 
H        1.281333   -2.030190   -1.370926 
H        2.061802   -0.644808   -2.160164 
H       -0.418569   -0.496793   -2.233288 
C       -3.143175   -0.906657    0.000564 
H       -4.139531   -0.438217    0.000246 
H       -3.033731   -2.004506    0.000959 
O       -2.159663   -0.197566    0.000455 
