11
0 1
Al       1.276694    0.151347    0.000013 
H        1.215697    0.986058   -1.363982 
H        2.151930   -1.187931   -0.000094 
H        1.215329    0.985705    1.364237 
C       -1.659145    0.377741   -0.000012 
H       -1.540102    1.009807   -0.890620 
H       -2.661910   -0.075163    0.000243 
N       -0.591177   -0.639044   -0.000016 
H       -0.672473   -1.244539   -0.817552 
H       -1.539822    1.010074    0.890377 
H       -0.672560   -1.244665    0.817412 
