11
0 1
H        0.826824    0.892702    1.359906 
H        1.655250   -1.319288    0.000224 
Ga       0.876194    0.067591   -0.000010 
H        0.825414    0.891704   -1.360539 
C       -2.142929    0.413001    0.000029 
H       -1.988210    1.039924   -0.889111 
H       -3.173694    0.025255   -0.000911 
N       -1.139201   -0.660751    0.000113 
H       -1.242769   -1.258384   -0.818859 
H       -1.243516   -1.258945    0.818582 
H       -1.989344    1.038963    0.890039 
