14
0 1
B       -0.616010    0.646157    0.000187 
H       -0.414562    1.303072   -1.008440 
H       -0.414901    1.303188    1.008775 
C       -2.017000   -0.145401   -0.000102 
H       -2.160686   -0.786247    0.891309 
H       -2.855979    0.570711   -0.000356 
H       -2.160226   -0.786286   -0.891567 
C        1.928266    0.100697   -0.000152 
H        2.038857    0.732791    0.890147 
H        2.693667   -0.689507   -0.000486 
N        0.568880   -0.461245    0.000186 
H        0.432647   -1.057141   -0.817511 
H        0.433217   -1.057676    0.817577 
H        2.038261    0.733247   -0.890162 
