14
0 1
Al      -0.619778    0.671392   -0.000064 
H       -0.272585    1.448249   -1.361163 
H       -0.272037    1.449147    1.360345 
C       -2.200200   -0.504862    0.000258 
H       -2.257186   -1.147495    0.896958 
H       -3.124224    0.100438   -0.009494 
H       -2.247516   -1.160887   -0.887309 
C        2.251317    0.011364    0.000212 
H        2.321131    0.651135    0.890415 
H        3.078359   -0.714478    0.000310 
N        0.933123   -0.648984   -0.000191 
H        0.835418   -1.251142    0.817729 
H        0.835609   -1.250494   -0.818600 
H        2.321586    0.651300   -0.889841 
