14
0 1
H        0.195369   -1.244056   -1.359128 
H        0.192312   -1.243421    1.358663 
Ga       0.500537   -0.462179   -0.000095 
C        1.969442    0.891486    0.000663 
H        1.946885    1.530080    0.899190 
H        2.945461    0.378271   -0.008082 
H        1.937078    1.541129   -0.889661 
C       -2.501256    0.030406    0.000721 
H       -2.518899   -0.612885    0.891384 
H       -3.392021    0.678172   -0.000752 
N       -1.247689    0.797667   -0.000965 
H       -1.188860    1.401689    0.817665 
H       -1.190262    1.400306   -0.820708 
H       -2.519021   -0.616761   -0.887168 
