21
0 1
B        1.493001   -0.296484    1.139864 
H        1.908941    0.683909    1.725598 
H        1.662684   -1.323587    1.770035 
C       -0.000736   -0.138535    0.592902 
C       -0.711385   -1.244626    0.081850 
C       -0.672483    1.099190    0.574094 
C       -2.003900   -1.125705   -0.437234 
H       -0.246501   -2.235820    0.112890 
C       -1.969046    1.233915    0.066072 
H       -0.165578    1.979192    0.979720 
C       -2.638494    0.120087   -0.447639 
H       -2.523913   -2.006084   -0.820929 
H       -2.460559    2.209164    0.073851 
H       -3.650636    0.219401   -0.843860 
C        2.568831    0.728888   -1.016021 
H        2.936825    1.567157   -0.410397 
H        3.245564    0.549466   -1.864186 
N        2.471118   -0.458135   -0.148422 
H        3.393603   -0.710218    0.205703 
H        2.135955   -1.256606   -0.689978 
H        1.564063    0.974105   -1.382951 
