31
0 1
B       -0.591843   -0.551153    0.594673 
H       -0.694045   -1.598927    1.218943 
C        0.462466    0.466838    1.271675 
C        0.656700    1.792296    0.464358 
C        1.799130   -0.312826    1.359497 
H        0.182395    0.732152    2.308477 
C       -0.048342    1.832734   -0.910569 
H        1.733495    1.972914    0.304044 
H        0.304311    2.655796    1.053987 
C        2.295446   -0.779072   -0.021102 
H        2.580645    0.309449    1.832771 
H        1.653082   -1.196017    2.004069 
C        0.067175    0.533472   -1.739977 
H        0.349011    2.677508   -1.498233 
H       -1.116579    2.085191   -0.773652 
C        1.230227   -1.553079   -0.818078 
H        2.623447    0.097828   -0.605014 
H        3.192202   -1.409059    0.102646 
C       -0.116070   -0.789131   -0.928014 
H        1.050604    0.528300   -2.241288 
H       -0.672851    0.585889   -2.556797 
H        1.046364   -2.520063   -0.319953 
H        1.627070   -1.777425   -1.825069 
H       -0.795172   -1.449729   -1.495148 
C       -3.153255   -0.780598    0.114801 
H       -4.151715   -0.364694    0.314294 
H       -2.991381   -0.848411   -0.967713 
N       -2.095611    0.059906    0.699511 
H       -2.114116    0.987610    0.275948 
H       -2.268627    0.191191    1.696515 
H       -3.070503   -1.786888    0.545688 
