35
0 1
Al       0.068080    0.949246   -0.598292 
C        1.194089   -0.624923   -1.019699 
H        0.775088   -1.074059   -1.941293 
H        2.211736   -0.296146   -1.315406 
C       -1.489978    0.659115    0.591467 
H       -1.142303    0.331888    1.591984 
H       -2.024002    1.616431    0.761551 
C        1.335226   -1.736289    0.043912 
H        0.327034   -2.122621    0.278681 
C        1.932884   -1.197235    1.353984 
H        1.246582   -0.488233    1.845577 
H        2.129561   -2.007498    2.074363 
H        2.893847   -0.687887    1.156982 
C        2.180299   -2.914705   -0.466591 
H        2.236964   -3.730374    0.273683 
H        1.758992   -3.324872   -1.397720 
H        3.209222   -2.578975   -0.683739 
C       -2.521501   -0.373142    0.078101 
H       -2.001140   -1.336801   -0.073902 
C       -3.110788    0.055158   -1.274550 
H       -3.858674   -0.670159   -1.633450 
H       -3.607097    1.036456   -1.180305 
H       -2.334273    0.151275   -2.051013 
C       -3.651740   -0.612321    1.091948 
H       -4.365003   -1.374261    0.735385 
H       -3.249552   -0.946450    2.061618 
H       -4.211271    0.323639    1.263003 
H       -0.100525    2.004400   -1.804582 
C        2.476121    2.610411   -0.053779 
H        3.038235    3.303082    0.590732 
H        3.107463    1.744633   -0.293205 
N        1.240216    2.132547    0.590599 
H        0.655086    2.923574    0.861174 
H        1.460991    1.625112    1.447930 
H        2.208809    3.113408   -0.993204 
