10
0 1
Al      -1.277703   -0.131909    0.009822 
H       -1.317557   -1.006402   -1.321012 
H       -2.009578    1.285049    0.045479 
H       -1.180879   -0.941826    1.385131 
C        1.680769   -0.312584    0.022754 
H        1.829196   -0.601788    1.073847 
H        1.446826   -1.202790   -0.575485 
H        2.578306    0.176530   -0.380454 
O        0.559843    0.558631   -0.101290 
H        0.700464    1.412496    0.318608 
