10
0 1
H       -0.739669   -0.860173    1.372081 
H       -1.537730    1.383495    0.052182 
Ga      -0.888426   -0.060595    0.005339 
H       -0.908495   -0.896440   -1.338128 
C        2.172613   -0.356675    0.024991 
H        1.932334   -1.177811   -0.663253 
H        2.208959   -0.744482    1.055249 
H        3.141813    0.081557   -0.255802 
O        1.138324    0.605247   -0.118610 
H        1.301738    1.390376    0.411105 
