13
0 1
B        0.631929    0.664775    0.037496 
H        0.391912    1.195990    1.109520 
H        0.419522    1.395920   -0.907043 
C        1.984550   -0.181174   -0.014945 
H        2.129188   -0.713917   -0.970973 
H        2.841830    0.504341    0.100734 
H        2.079204   -0.921169    0.803322 
C       -1.893678    0.061026    0.008374 
H       -2.007334    0.812249   -0.781818 
H       -2.037627    0.534445    0.991093 
H       -2.603533   -0.763302   -0.145509 
O       -0.565357   -0.435972   -0.106619 
H       -0.395186   -1.159766    0.505573 
