20
0 1
B        1.392059    0.149561    0.909992 
H        1.773870    1.266170    1.200408 
H        1.769440   -0.711165    1.672168 
C       -0.131213    0.071096    0.465398 
C       -0.789146   -1.165188    0.296894 
C       -0.883941    1.232020    0.200815 
C       -2.119194   -1.242302   -0.122284 
H       -0.241906   -2.087607    0.509980 
C       -2.218504    1.169898   -0.215518 
H       -0.412965    2.209320    0.338468 
C       -2.838834   -0.070597   -0.380453 
H       -2.601253   -2.214933   -0.240435 
H       -2.776514    2.088984   -0.405915 
H       -3.880452   -0.125832   -0.702170 
C        3.629765    0.014081   -0.408199 
H        4.004809   -0.580507    0.433291 
H        3.845789    1.078602   -0.234188 
H        4.076067   -0.335377   -1.349077 
O        2.223616   -0.202360   -0.449029 
H        1.800295    0.229368   -1.200168 
