9
0 1
H       -0.747818   -0.851279    1.355197 
H       -1.585129    1.374481    0.000664 
Ga      -0.931537   -0.056177   -0.000009 
H       -0.747615   -0.849962   -1.355961 
F        1.238542    0.642274    0.000042 
C        2.232656   -0.334430    0.000004 
H        2.106785   -0.944349   -0.905051 
H        2.107676   -0.943522    0.905736 
H        3.200949    0.182218   -0.000714 
