12
0 1
H       -0.174464   -1.197673    1.352050 
H       -0.175317   -1.197142   -1.352606 
Ga      -0.582809   -0.472010    0.000004 
C       -1.871795    1.021710    0.000154 
H       -1.759205    1.651623   -0.895219 
H       -2.898691    0.618046   -0.001591 
H       -1.761397    1.650180    0.896796 
F        1.356568    0.771036   -0.000191 
C        2.554649    0.061148    0.000117 
H        2.579416   -0.560771   -0.905233 
H        2.578215   -0.561982    0.904660 
H        3.372269    0.793544    0.001118 
