19
0 1
B        1.101007   -0.093519    1.231323 
H        1.660585    0.915786    1.549485 
H        1.600608   -1.144941    1.508503 
C       -0.299583   -0.039451    0.604318 
C       -1.003536   -1.220508    0.282291 
C       -0.936892    1.192607    0.339676 
C       -2.279929   -1.177630   -0.278574 
H       -0.531056   -2.185765    0.478512 
C       -2.213075    1.246926   -0.220570 
H       -0.412473    2.120096    0.581063 
C       -2.883955    0.058894   -0.529753 
H       -2.807240   -2.101831   -0.520973 
H       -2.688533    2.209239   -0.417755 
H       -3.883213    0.096941   -0.968006 
F        2.592467   -0.087835   -0.771663 
C        3.882135    0.093798   -0.327426 
H        3.999120   -0.425890    0.635123 
H        4.062971    1.171512   -0.201682 
H        4.571016   -0.324850   -1.075690 
