12
0 1
B        1.179229    0.840770   -0.055500 
H        0.787360    1.416638    0.925021 
H        0.848734    1.293594   -1.119360 
C        2.419594   -0.110011    0.039375 
H        2.534501   -0.794970   -0.815124 
H        3.304704    0.558553    0.022846 
H        2.482611   -0.683602    0.977128 
Cl      -0.710367   -0.678984   -0.016929 
C       -1.957693    0.610559    0.034636 
H       -1.714965    1.326410   -0.758304 
H       -1.903473    1.082464    1.021465 
H       -2.930791    0.136502   -0.132454 
