12
0 1
Al       1.013341    0.783565   -0.000083 
H        0.586369    1.522774    1.348830 
H        0.586285    1.522442   -1.349163 
C        2.470324   -0.517965    0.000105 
H        2.456117   -1.163406   -0.893923 
H        3.441549    0.009007    0.001450 
H        2.454501   -1.164873    0.893051 
Cl      -0.978481   -0.770563   -0.000062 
C       -2.246582    0.512378    0.000135 
H       -2.093688    1.112054   -0.903851 
H       -2.098083    1.107529    0.907814 
H       -3.214762    0.001230   -0.003515 
