19
0 1
Al       0.973412   -0.003498    1.219278 
H        1.601049    1.361185    1.749998 
H        1.599804   -1.370740    1.744791 
C       -0.837095   -0.001301    0.495773 
C       -1.524485   -1.203250    0.223099 
C       -1.523298    1.202371    0.227715 
C       -2.824213   -1.207700   -0.292227 
H       -1.036468   -2.162251    0.421088 
C       -2.823028    1.210101   -0.287563 
H       -1.034329    2.160119    0.429384 
C       -3.475171    0.002017   -0.549167 
H       -3.331237   -2.153787   -0.492045 
H       -3.329130    2.157447   -0.483720 
H       -4.490431    0.003283   -0.950139 
Cl       2.297292    0.000771   -0.931867 
C        3.942311    0.002531   -0.192347 
H        4.021450   -0.903804    0.418186 
H        4.018921    0.908236    0.419430 
H        4.661919    0.004058   -1.017543 
