19
0 1
H        1.447947    1.496087    1.364179 
H        1.448677    1.490044   -1.370443 
Ga       0.787857    1.043869   -0.002317 
C       -1.040696    0.323677   -0.000869 
C       -1.723316    0.058730   -1.204572 
C       -1.723814    0.065901    1.204115 
C       -3.027790   -0.444169   -1.208192 
H       -1.228812    0.249744   -2.160927 
C       -3.028298   -0.436957    1.210211 
H       -1.229677    0.262568    2.159514 
C       -3.681654   -0.693281    0.001626 
H       -3.535735   -0.641165   -2.154271 
H       -3.536633   -0.628320    2.157236 
H       -4.700419   -1.085076    0.002574 
Cl       2.177923   -1.302430    0.002524 
C        3.816346   -0.557119    0.001946 
H        3.899121    0.054404    0.907265 
H        3.897337    0.056798   -0.901931 
H        4.545253   -1.374424    0.000137 
