7
0 1
H       -1.217160   -1.359897    0.015596 
H       -1.218804    1.358899    0.015503 
Ga      -0.411681    0.000022   -0.002055 
C        1.558444    0.000346   -0.005445 
H        1.970325    0.908462   -0.470123 
H        1.906896   -0.022332    1.042830 
H        1.970186   -0.887893   -0.507418 
