14
0 1
Al       2.479625   -0.000001   -0.000095 
H        3.257504    1.379016   -0.000388 
H        3.257526   -1.379003   -0.000116 
C        0.545117   -0.000009    0.000217 
C       -0.190377   -1.205722    0.000149 
C       -0.190364    1.205714    0.000168 
C       -1.587585   -1.210610   -0.000042 
H        0.338899   -2.163060    0.000169 
C       -1.587571    1.210618   -0.000024 
H        0.338924    2.163046    0.000195 
C       -2.286566    0.000007   -0.000140 
H       -2.132892   -2.156233   -0.000135 
H       -2.132869    2.156246   -0.000114 
H       -3.378136    0.000014   -0.000343 
